14
S0 energy / H -231.82028796441909
C -3.1703805538 3.5566311602 -0.2481571486
C -3.8586533508 2.2347199413 0.0970008931
C -1.6905303393 3.4987426822 0.0171869517
H -3.6356296385 4.3786686476 0.3075458383
H -3.3242061213 3.7847502306 -1.3165093281
C -3.0720516143 1.0522228926 -0.4003404195
H -4.8772039384 2.2252829147 -0.3077033815
H -3.9637495404 2.1477768208 1.1916663339
C -1.7345153634 1.1142789521 -0.4748769449
C -1.0262924063 2.3408930607 -0.1112617260
H 0.0510222414 2.2999485574 0.0314142973
H -1.1621218335 4.4202104884 0.2515935359
H -3.6003509326 0.1311872208 -0.6363463503
H -1.1547356591 0.2490571251 -0.7877815237