14
S0 energy / H -231.78098258009587
C -0.2211597655 1.9773980815 -0.3332286582
C -1.7729058988 -0.9629420440 0.4796976904
C 0.7539488703 1.3913584358 0.3484122820
H -0.4966489447 2.9979514597 -0.1363717845
H -0.7713199911 1.4645765415 -1.0999170930
C -0.7806672218 -1.4384969201 -0.2611822292
H -2.7831919109 -1.2993699105 0.3304314757
H -1.6126966577 -0.2318244061 1.2498189021
C 0.6467031071 -1.1214556178 -0.1528987452
C 1.2756664192 0.0326532978 0.1682144187
H 2.3444269092 -0.0372571493 0.2927126228
H 1.2873170018 1.9848456589 1.0752869839
H -1.0163543916 -2.2023146829 -0.9864121526
H 1.2896304403 -1.9665361543 -0.3401184504