22
S0 energy / H -231.82028796441909
N 0.30774 1.49824 0.02912
C -0.17672 0.79031 1.19466
C 0.18137 -0.82391 1.24449
N -0.26095 -1.50630 -0.00670
C 0.19340 -0.79407 -1.19197
C -0.23770 0.78842 -1.14215
C 1.67011 2.07464 -0.07586
C -1.65212 -1.96011 -0.06700
H -1.26289 0.76108 1.10817
H 0.10240 1.22655 2.15377
H -0.44597 -1.34486 1.96778
H 1.21168 -1.14748 1.39231
H 0.06786 1.08209 -2.14639
H -1.29917 0.79880 -0.89459
H 1.25752 -0.72048 -0.96761
H -0.06343 -1.41289 -2.05174
H 1.91120 2.73139 0.76000
H 1.82780 2.44102 -1.09025
H 2.22817 1.14018 -0.01701
H -1.95107 -2.60052 0.76283
H -1.75429 -2.75333 -0.80759
H -2.34308 -1.12364 -0.17183